dss/UndirFeeder_EXP_CURRENTS.csv
Element, I1_1, Ang1_1, I1_2, Ang1_2, I1_3, Ang1_3, I1_4, Ang1_4, Iresid1, AngResid1, I2_1, Ang2_1, I2_2, Ang2_2, I2_3, Ang2_3, I2_4, Ang2_4, Iresid2, AngResid2
Vsource.SOURCE,    440.773,   153.53,    440.773,    33.53,    440.773,   -86.47,          0,     0.00, 6.17429E-8,  -144.72,    440.773,   -26.47,    440.773,  -146.47,    440.773,    93.53,          0,     0.00, 6.17429E-8,    35.28
Line.M01,    86.0122,   -26.52,    86.0122,  -146.52,    86.0122,    93.48,          0,     0.00, 1.53503E-9,  -179.63,    86.0186,   153.48,    86.0186,    33.48,    86.0186,   -86.52,          0,     0.00, 1.52728E-9,     0.24
Line.M02,    36.5777,   -26.33,    36.5777,  -146.33,    36.5777,    93.67,          0,     0.00, 2.95699E-10,   -79.81,    36.5813,   153.66,    36.5813,    33.66,    36.5813,   -86.34,          0,     0.00, 2.89038E-10,    98.87
Line.LU1,    37.3403,   -26.49,    37.3403,  -146.49,    37.3403,    93.51,          0,     0.00, 8.39893E-11,     4.97,    37.3421,   153.51,    37.3421,    33.51,    37.3421,   -86.49,          0,     0.00, 9.66635E-11,  -160.20
Line.LU2,    34.4528,   -26.49,    34.4528,  -146.49,    34.4528,    93.51,          0,     0.00, 8.68794E-11,    -6.01,    34.4557,   153.50,    34.4557,    33.50,    34.4557,   -86.50,          0,     0.00, 6.63386E-11,   173.70
Line.LU3,    34.1378,   -26.52,    34.1378,  -146.52,    34.1378,    93.48,          0,     0.00, 6.58866E-11,     6.34,     34.139,   153.47,     34.139,    33.47,     34.139,   -86.53,          0,     0.00, 7.14749E-11,  -165.26
Line.LU4,    33.8646,   -26.54,    33.8646,  -146.54,    33.8646,    93.46,          0,     0.00, 9.26078E-11,    45.00,    33.8658,   153.46,    33.8658,    33.46,    33.8658,   -86.54,          0,     0.00, 6.91754E-11,  -151.75
Line.LU5,     30.973,   -26.54,     30.973,  -146.54,     30.973,    93.46,          0,     0.00, 9.40833E-11,    60.46,    30.9753,   153.45,    30.9753,    33.45,    30.9753,   -86.55,          0,     0.00, 8.4793E-11,  -125.39
Line.LU6,    27.8389,   -26.55,    27.8389,  -146.55,    27.8389,    93.45,          0,     0.00, 9.14981E-11,    52.67,    27.8423,   153.43,    27.8423,    33.43,    27.8423,   -86.57,          0,     0.00, 8.86757E-11,  -126.87
Line.LU7,    25.1883,   -26.58,    25.1883,  -146.58,    25.1883,    93.42,          0,     0.00, 7.83235E-11,    64.92,    25.1911,   153.41,    25.1911,    33.41,    25.1911,   -86.59,          0,     0.00, 8.8296E-11,  -114.98
Line.LU8,    22.7776,   -26.61,    22.7776,  -146.61,    22.7776,    93.39,          0,     0.00, 8.43872E-11,    59.57,    22.7805,   153.37,    22.7805,    33.37,    22.7805,   -86.63,          0,     0.00, 7.82007E-11,  -123.14
Line.LU9,    18.9092,   -26.60,    18.9092,  -146.60,    18.9092,    93.40,          0,     0.00, 7.93088E-11,    53.39,    18.9126,   153.38,    18.9126,    33.38,    18.9126,   -86.62,          0,     0.00, 7.93088E-11,  -126.61
Line.LU10,    15.0396,   -26.60,    15.0396,  -146.60,    15.0396,    93.40,          0,     0.00, 5.20625E-10,  -153.43,    15.0396,   153.40,    15.0396,    33.40,    15.0396,   -86.60,          0,     0.00, 8.47516E-10,   -15.95
Line.LU11,    14.6802,   -26.61,    14.6802,  -146.61,    14.6802,    93.39,          0,     0.00, 1.03336E-9,  -177.38,    14.6819,   153.37,    14.6819,    33.37,    14.6819,   -86.63,          0,     0.00, 1.02627E-9,     2.84
Line.LU12,     11.052,   -26.61,     11.052,  -146.61,     11.052,    93.39,          0,     0.00, 1.02956E-9,  -177.57,    11.0537,   153.37,    11.0537,    33.37,    11.0537,   -86.63,          0,     0.00, 1.02048E-9,     2.45
Line.LU13,    7.17946,   -26.56,    7.17946,  -146.56,    7.17946,    93.44,          0,     0.00, 8.14907E-10,   180.00,    7.17957,   153.43,    7.17957,    33.43,    7.17957,   -86.57,          0,     0.00, 8.76141E-10,    11.50
Line.LU14,    4.12777,   -26.32,    4.12777,  -146.32,    4.12777,    93.68,          0,     0.00, 1.95911E-11,   -21.80,    4.12855,   153.66,    4.12855,    33.66,    4.12855,   -86.34,          0,     0.00, 3.53184E-11,   168.11
Line.LU15,     2.6554,   -26.32,     2.6554,  -146.32,     2.6554,    93.68,          0,     0.00, 8.38513E-12,  -167.47,    2.65883,   153.53,    2.65883,    33.53,    2.65883,   -86.47,          0,     0.00, 2.03369E-12,   116.57
Line.LU16,    3.05189,   -26.90,    3.05189,  -146.90,    3.05189,    93.10,          0,     0.00, 1.19889E-9,  -176.69,    3.05352,   153.04,    3.05352,    33.04,    3.05352,   -86.96,          0,     0.00, 1.19869E-9,     3.13
Line.LU17,   0.637077,   -28.98,   0.637077,  -148.98,   0.637077,    91.02,          0,     0.00, 1.21103E-9,  -177.25,    0.64081,   150.42,    0.64081,    30.42,    0.64081,   -89.58,          0,     0.00, 1.20313E-9,     3.03
Line.LU18,    3.23458,   153.82,    3.23458,    33.82,    3.23458,   -86.18,          0,     0.00, 1.19013E-9,  -177.20,    3.23285,   -26.12,    3.23285,  -146.12,    3.23285,    93.88,          0,     0.00, 1.20951E-9,     2.07
Line.LU19,    6.14131,   153.55,    6.14131,    33.55,    6.14131,   -86.45,          0,     0.00, 1.22859E-9,  -177.96,    6.14045,   -26.43,    6.14045,  -146.43,    6.14045,    93.57,          0,     0.00, 1.19891E-9,     1.04
Line.LU20,    14.3792,   153.64,    14.3792,    33.64,    14.3792,   -86.36,          0,     0.00, 1.43182E-9,  -177.67,    14.3775,   -26.35,    14.3775,  -146.35,    14.3775,    93.65,          0,     0.00, 1.44778E-9,     1.87
Line.LU21,    15.7447,   153.64,    15.7447,    33.64,    15.7447,   -86.36,          0,     0.00, 1.46437E-9,  -175.44,    15.7435,   -26.35,    15.7435,  -146.35,    15.7435,    93.65,          0,     0.00, 1.47236E-9,     3.97
Line.LU22,    16.8818,   153.69,    16.8818,    33.69,    16.8818,   -86.31,          0,     0.00, 1.18756E-9,  -162.90,    16.8817,   -26.31,    16.8817,  -146.31,    16.8817,    93.69,          0,     0.00,  1.5403E-9,    22.20
Line.LU23,    43.9325,   153.34,    43.9325,    33.34,    43.9325,   -86.66,          0,     0.00, 5.26418E-10,   -53.29,    43.9307,   -26.65,    43.9307,  -146.65,    43.9307,    93.35,          0,     0.00, 5.15631E-10,   124.36
Line.LU24,    46.8292,   153.36,    46.8292,    33.36,    46.8292,   -86.64,          0,     0.00, 1.28189E-9,     2.60,    46.8291,   -26.64,    46.8291,  -146.64,    46.8291,    93.36,          0,     0.00, 9.96355E-10,   173.29
Line.LU25,    46.8418,   153.37,    46.8418,    33.37,    46.8418,   -86.63,          0,     0.00, 1.08763E-9,     4.60,    46.8415,   -26.63,    46.8415,  -146.63,    46.8415,    93.37,          0,     0.00, 1.24725E-9,  -175.99
Line.LU26,    48.2743,   153.39,    48.2743,    33.39,    48.2743,   -86.61,          0,     0.00, 1.24791E-9,     0.67,    48.2739,   -26.61,    48.2739,  -146.61,    48.2739,    93.39,          0,     0.00, 1.22964E-9,   180.00
Line.LU27,    48.2866,   153.40,    48.2866,    33.40,    48.2866,   -86.60,          0,     0.00,  1.3464E-9,     2.48,    48.2854,   -26.60,    48.2854,  -146.60,    48.2854,    93.40,          0,     0.00, 1.35912E-9,  -177.55
Line.LU28,    48.2854,   153.40,    48.2854,    33.40,    48.2854,   -86.60,          0,     0.00,  1.4091E-9,     2.37,    48.2842,   -26.60,    48.2842,  -146.60,    48.2842,    93.40,          0,     0.00, 1.41834E-9,  -177.50
Line.LU29,    48.6604,   153.42,    48.6604,    33.42,    48.6604,   -86.58,          0,     0.00, 1.43488E-9,     1.67,     48.658,   -26.58,     48.658,  -146.58,     48.658,    93.42,          0,     0.00, 1.42914E-9,  -178.10
Line.LU30,    48.6707,   153.43,    48.6707,    33.43,    48.6707,   -86.57,          0,     0.00,  1.4269E-9,     1.28,    48.6661,   -26.56,    48.6661,  -146.56,    48.6661,    93.44,          0,     0.00, 1.42897E-9,  -178.32
Line.LU31,    48.6789,   153.45,    48.6789,    33.45,    48.6789,   -86.55,          0,     0.00, 1.49901E-9,    -0.83,    48.6783,   -26.55,    48.6783,  -146.55,    48.6783,    93.45,          0,     0.00, 1.51384E-9,  -178.62
Line.LU32,    27.0513,   -26.87,    27.0513,  -146.87,    27.0513,    93.13,          0,     0.00, 3.90469E-10,    63.43,    27.0513,   153.13,    27.0513,    33.13,    27.0513,   -86.87,          0,     0.00, 2.09871E-10,   -33.69
Line.LU33,    21.7164,   -26.81,    21.7164,  -146.81,    21.7164,    93.19,          0,     0.00, 2.00221E-10,   -65.30,    21.7169,   153.18,    21.7169,    33.18,    21.7169,   -86.82,          0,     0.00, 2.13528E-10,   113.07
Line.LU34,    17.8436,   -26.83,    17.8436,  -146.83,    17.8436,    93.17,          0,     0.00, 2.27921E-10,   -52.95,    17.8454,   153.16,    17.8454,    33.16,    17.8454,   -86.84,          0,     0.00, 2.33342E-10,   120.96
Line.LU35,    12.8545,   -26.88,    12.8545,  -146.88,    12.8545,    93.12,          0,     0.00, 8.7991E-11,   -97.13,    12.8552,   153.12,    12.8552,    33.12,    12.8552,   -86.88,          0,     0.00, 1.48946E-10,   118.44
Line.LU36,    12.8563,   -26.89,    12.8563,  -146.89,    12.8563,    93.11,          0,     0.00, 2.02039E-10,   -69.44,    12.8569,   153.10,    12.8569,    33.10,    12.8569,   -86.90,          0,     0.00, 2.40987E-10,   118.89
Line.LU37,    10.1981,   -27.01,    10.1981,  -147.01,    10.1981,    92.99,          0,     0.00, 1.55893E-10,   -78.56,    10.1988,   152.98,    10.1988,    32.98,    10.1988,   -87.02,          0,     0.00, 1.89184E-10,    90.55
Line.LU38,    9.96651,   -27.06,    9.96651,  -147.06,    9.96651,    92.94,          0,     0.00, 1.04998E-10,   -75.96,     9.9669,   152.93,     9.9669,    32.93,     9.9669,   -87.07,          0,     0.00, 1.58116E-10,    66.97
Line.LU39,    9.60581,   -27.13,    9.60581,  -147.13,    9.60581,    92.87,          0,     0.00, 4.54747E-11,   126.87,    9.60641,   152.86,    9.60641,    32.86,    9.60641,   -87.14,          0,     0.00, 8.76141E-11,   -48.37
Line.LU40,    9.59375,   -27.18,    9.59375,  -147.18,    9.59375,    92.82,          0,     0.00, 5.50526E-11,    -7.59,    9.59445,   152.81,    9.59445,    32.81,    9.59445,   -87.19,          0,     0.00, 2.18279E-11,   180.00
Line.LU41,    1.78698,   -25.35,    1.78698,  -145.35,    1.78698,    94.65,          0,     0.00, 1.01342E-10,    68.96,     1.7875,   154.61,     1.7875,    34.61,     1.7875,   -85.39,          0,     0.00, 5.99991E-11,   165.96
Line.LU42,    1.11346,   151.82,    1.11346,    31.82,    1.11346,   -88.18,          0,     0.00, 1.35206E-11,    70.35,    1.11091,   -27.93,    1.11091,  -147.93,    1.11091,    92.07,          0,     0.00, 1.83032E-11,  -116.57
Line.LU43,    4.98588,   152.99,    4.98588,    32.99,    4.98588,   -87.01,          0,     0.00, 3.98936E-11,    46.85,    4.98405,   -26.97,    4.98405,  -146.97,    4.98405,    93.03,          0,     0.00, 5.1905E-11,  -101.11
Line.LU44,    4.98405,   153.03,    4.98405,    33.03,    4.98405,   -86.97,          0,     0.00, 4.23184E-11,    98.65,    4.98075,   -26.89,    4.98075,  -146.89,    4.98075,    93.11,          0,     0.00, 4.67661E-11,   -76.50
Line.LU45,    4.99344,   153.18,    4.99344,    33.18,    4.99344,   -86.82,          0,     0.00, 4.10408E-11,   111.45,    4.99092,   -26.76,    4.99092,  -146.76,    4.99092,    93.24,          0,     0.00, 5.82148E-11,   -61.03
Line.LU46,    8.23872,   -26.31,    8.23872,  -146.31,    8.23872,    93.69,          0,     0.00, 2.72873E-10,     0.76,    8.24048,   153.66,    8.24048,    33.66,    8.24048,   -86.34,          0,     0.00, 2.73236E-10,  -176.95
Line.LU47,    5.33994,   -26.25,    5.33994,  -146.25,    5.33994,    93.75,          0,     0.00, 2.26024E-10,    -3.69,    5.34038,   153.74,    5.34038,    33.74,    5.34038,   -86.26,          0,     0.00, 2.6921E-10,   161.08
Line.LU48,    5.34038,   -26.26,    5.34038,  -146.26,    5.34038,    93.74,          0,     0.00, 2.84862E-10,   -20.17,    5.34152,   153.71,    5.34152,    33.71,    5.34152,   -86.29,          0,     0.00, 2.58911E-10,   162.84
Line.LU49,    2.92475,   -26.19,    2.92475,  -146.19,    2.92475,    93.81,          0,     0.00, 2.77275E-10,   -51.93,    2.92514,   153.80,    2.92514,    33.80,    2.92514,   -86.20,          0,     0.00, 2.18794E-10,   132.98
Line.LU50,     2.9004,   -26.48,     2.9004,  -146.48,     2.9004,    93.52,          0,     0.00, 3.27923E-11,    19.44,    2.90157,   153.47,    2.90157,    33.47,    2.90157,   -86.53,          0,     0.00, 1.16472E-11,   141.34
Line.LU51,  0.0284277,     3.19,  0.0284277,  -116.81,  0.0284277,   123.19,          0,     0.00, 2.37558E-10,   -49.97,  0.0283796,  -179.40,  0.0283796,    60.60,  0.0283796,   -59.40,          0,     0.00, 1.84105E-10,   127.78
Line.LU52,  0.0141947,     1.48,  0.0141947,  -118.52,  0.0141947,   121.48,          0,     0.00, 1.59574E-10,    46.85,  0.0141883,   179.72,  0.0141883,    59.72,  0.0141883,   -60.28,          0,     0.00, 1.18444E-10,  -100.62
Line.LU54,    7.06827,   -26.31,    7.06827,  -146.31,    7.06827,    93.69,          0,     0.00, 1.60198E-11,    -6.52,    7.07151,   153.64,    7.07151,    33.64,    7.07151,   -86.36,          0,     0.00, 1.17972E-11,   152.45
Line.LU55,    6.47824,   -26.44,    6.47824,  -146.44,    6.47824,    93.56,          0,     0.00, 3.66544E-11,    11.45,    6.48081,   153.52,    6.48081,    33.52,    6.48081,   -86.48,          0,     0.00, 2.72583E-11,   152.15
Line.LU56,    3.36012,   -26.47,    3.36012,  -146.47,    3.36012,    93.53,          0,     0.00, 6.10108E-12,    63.43,    3.36304,   153.43,    3.36304,    33.43,    3.36304,   -86.57,          0,     0.00, 1.3022E-11,   102.09
Line.LU57,    27.1136,   -26.35,    27.1136,  -146.35,    27.1136,    93.65,          0,     0.00, 2.74671E-10,   -89.72,    27.1172,   153.64,    27.1172,    33.64,    27.1172,   -86.36,          0,     0.00, 2.74803E-10,    91.80
Line.LU58,    27.1044,   -26.38,    27.1044,  -146.38,    27.1044,    93.62,          0,     0.00, 2.67614E-10,   -87.66,    27.1073,   153.61,    27.1073,    33.61,    27.1073,   -86.39,          0,     0.00, 2.67892E-10,    93.50
Line.LU59,    26.4605,   -26.41,    26.4605,  -146.41,    26.4605,    93.59,          0,     0.00, 2.49089E-10,   -96.71,    26.4613,   153.59,    26.4613,    33.59,    26.4613,   -86.41,          0,     0.00, 2.98314E-10,    90.00
Line.LU60,    23.8187,   -26.41,    23.8187,  -146.41,    23.8187,    93.59,          0,     0.00, 2.49964E-10,   -68.66,     23.819,   153.59,     23.819,    33.59,     23.819,   -86.41,          0,     0.00, 3.35661E-10,    94.35
Line.LU61,    21.4169,   -26.42,    21.4169,  -146.42,    21.4169,    93.58,          0,     0.00, 2.75625E-10,   -77.61,    21.4181,   153.57,    21.4181,    33.57,    21.4181,   -86.43,          0,     0.00, 2.83342E-10,   105.64
Line.LU62,    17.5665,   -26.37,    17.5665,  -146.37,    17.5665,    93.63,          0,     0.00, 2.4781E-10,   -93.37,    17.5668,   153.63,    17.5668,    33.63,    17.5668,   -86.37,          0,     0.00, 2.7887E-10,    82.50
Line.LU63,    15.1648,   -26.38,    15.1648,  -146.38,    15.1648,    93.62,          0,     0.00, 2.02327E-10,   -81.47,    15.1663,   153.61,    15.1663,    33.61,    15.1663,   -86.39,          0,     0.00, 2.0159E-10,    83.00
Line.LU64,    3.37963,   -26.44,    3.37963,  -146.44,    3.37963,    93.56,          0,     0.00, 7.70874E-11,  -109.29,     3.3801,   153.54,     3.3801,    33.54,     3.3801,   -86.46,          0,     0.00, 1.02898E-10,    81.87
Line.LU65,  0.0143273,     4.95,  0.0143273,  -115.05,  0.0143273,   124.95,          0,     0.00, 7.77711E-11,   -10.78,  0.0142695,   179.76,  0.0142695,    59.76,  0.0142695,   -60.24,          0,     0.00, 3.25391E-11,   153.43
Line.LU66,    11.7866,   -26.37,    11.7866,  -146.37,    11.7866,    93.63,          0,     0.00, 6.98419E-11,   -81.76,    11.7885,   153.61,    11.7885,    33.61,    11.7885,   -86.39,          0,     0.00, 4.76509E-11,   113.63
Line.LU67,    3.36746,   -26.55,    3.36746,  -146.55,    3.36746,    93.45,          0,     0.00, 1.55415E-11,  -110.56,    3.36845,   153.41,    3.36845,    33.41,    3.36845,   -86.59,          0,     0.00, 2.9611E-11,    47.49
Line.LU68,    5.77729,   -26.29,    5.77729,  -146.29,    5.77729,    93.71,          0,     0.00, 2.47409E-11,    36.03,     5.7788,   153.68,     5.7788,    33.68,     5.7788,   -86.32,          0,     0.00, 2.19977E-11,  -150.26
Line.LU69,  0.0158598,    25.70,  0.0158598,   -94.30,  0.0158598,   145.70,          0,     0.00, 1.46157E-11,    95.36,  0.0142666,   179.76,  0.0142666,    59.76,  0.0142666,   -60.24,          0,     0.00, 4.54747E-12,  -126.87
Line.LU70,    2.88364,   -26.41,    2.88364,  -146.41,    2.88364,    93.59,          0,     0.00, 1.46652E-11,  -150.26,     2.8848,   153.55,     2.8848,    33.55,     2.8848,   -86.45,          0,     0.00, 7.27596E-12,   180.00
Line.LU73, 0.00237518,    89.76, 0.00237518,   -30.24, 0.00237518,  -150.24,          0,     0.00, 5.95841E-11,    77.66, 1.96754E-11,  -146.31, 1.09139E-11,   -90.00, 2.91038E-11,   -90.00,          0,     0.00, 5.34981E-11,  -107.82
Transformer.RAM_MANDIR,    2.88922,   -26.49,    2.88922,  -146.49,    2.88922,    93.51,          0,     0.00, 4.49387E-14,    18.43,    76.2443,   123.39,    76.2443,     3.39,    76.2443,  -116.61, 1.50809E-8,   -57.26, 2.27374E-13,   -90.00
Transformer.DEMPO_DTC,     0.3181,   -24.55,     0.3181,  -144.55,     0.3181,    95.45,          0,     0.00, 4.26326E-14,   -90.00,    8.08918,   124.36,    8.08918,     4.36,    8.08918,  -115.64, 1.59156E-9,   -55.82, 2.05896E-12,   -83.66
Transformer.RB_ENGG,   0.274435,   -25.26,   0.274435,  -145.26,   0.274435,    94.74,          0,     0.00, 7.10543E-14,   180.00,    6.93418,   123.42,    6.93418,     3.42,    6.93418,  -116.58, 1.36286E-9,   -56.69, 9.09495E-13,    90.00
Transformer.UNDIR_BAKALE,    2.89277,   -26.50,    2.89277,  -146.50,    2.89277,    93.50,          0,     0.00, 2.84217E-14,   -90.00,    76.3388,   123.38,    76.3388,     3.38,    76.3388,  -116.62, 1.51201E-8,   -57.28, 7.19019E-13,   161.57
Transformer.MULEBHAT,    3.13642,   -26.56,    3.13642,  -146.56,    3.13642,    93.44,          0,     0.00, 5.1238E-14,  -146.31,    82.7973,   123.33,    82.7973,     3.33,    82.7973,  -116.67, 1.64201E-8,   -57.38, 7.19019E-13,  -108.43
Transformer.MARUTI_TEMPLE,    2.65406,   -26.45,    2.65406,  -146.45,    2.65406,    93.55,          0,     0.00,          0,     0.00,    70.0117,   123.42,    70.0117,     3.42,    70.0117,  -116.58, 1.38746E-8,   -57.21, 4.54747E-13,   -90.00
Transformer.CHIKALI,    2.41354,   -26.40,    2.41354,  -146.40,    2.41354,    93.60,          0,     0.00, 2.84217E-14,    90.00,    63.6363,   123.46,    63.6363,     3.46,    63.6363,  -116.54, 1.26098E-8,   -57.12,          0,     0.00
Transformer.ADPAI,     3.8713,   -26.73,     3.8713,  -146.73,     3.8713,    93.27,          0,     0.00, 4.49387E-14,   161.57,    102.277,   123.17,    102.277,     3.17,    102.277,  -116.83, 2.03643E-8,   -57.70, 9.64665E-13,   -45.00
Transformer.DURBHAT,    3.87303,   -26.74,    3.87303,  -146.74,    3.87303,    93.26,          0,     0.00, 4.49387E-14,   -18.43,    102.323,   123.17,    102.323,     3.17,    102.323,  -116.83, 2.03812E-8,   -57.70, 8.19807E-13,   146.31
Transformer.SEWERAGE,    0.35945,   -25.86,    0.35945,  -145.86,    0.35945,    94.14,          0,     0.00, 2.84217E-14,   -90.00,    9.18982,   123.13,    9.18982,     3.13,    9.18982,  -116.87, 1.81345E-9,   -57.07, 1.15938E-12,   -11.31
Transformer.KASWADA,    3.62994,   -26.69,    3.62994,  -146.69,    3.62994,    93.31,          0,     0.00, 1.42109E-14,   -90.00,    95.8797,   123.22,    95.8797,     3.22,    95.8797,  -116.78, 1.90867E-8,   -57.61, 1.01685E-12,   -26.57
Transformer.LONDIYAR_WADEM,    3.87423,   -26.74,    3.87423,  -146.74,    3.87423,    93.26,          0,     0.00, 4.01944E-14,  -135.00,    102.355,   123.17,    102.355,     3.17,    102.355,  -116.83, 2.03926E-8,   -57.71, 1.3258E-12,   -30.96
Transformer.NEW_TALAULIM,    1.47315,   -26.39,    1.47315,  -146.39,    1.47315,    93.61,          0,     0.00, 5.1238E-14,   146.31,    38.7104,   123.37,    38.7104,     3.37,    38.7104,  -116.63, 7.66141E-9,   -57.04, 1.13687E-12,   -90.00
Transformer.WADI,    2.65883,   -26.47,    2.65883,  -146.47,    2.65883,    93.53,          0,     0.00, 4.26326E-14,   180.00,    70.1388,   123.40,    70.1388,     3.40,    70.1388,  -116.60, 1.39271E-8,   -57.24, 3.21555E-13,   135.00
Transformer.TALAULIM,    2.41694,   -26.43,    2.41694,  -146.43,    2.41694,    93.57,          0,     0.00, 1.42109E-14,   180.00,     63.727,   123.43,     63.727,     3.43,     63.727,  -116.57,  1.2647E-8,   -57.19, 9.09495E-13,     0.00
Transformer.MAHALAKSHMI_NAGAR,    3.87444,   -26.74,    3.87444,  -146.74,    3.87444,    93.26,          0,     0.00, 2.84217E-14,     0.00,    102.361,   123.17,    102.361,     3.17,    102.361,  -116.83, 2.03969E-8,   -57.71, 1.3258E-12,  -149.04
Transformer.PAUNWADA,    2.90857,   -26.82,    2.90857,  -146.82,    2.90857,    93.18,          0,     0.00, 7.10543E-15,     0.00,    76.7595,   123.06,    76.7595,     3.06,    76.7595,  -116.94, 1.52951E-8,   -57.92, 9.37486E-13,   -14.04
Transformer.KAVLE_MATH,     1.3672,   -26.48,     1.3672,  -146.48,     1.3672,    93.52,          0,     0.00, 4.26326E-14,     0.00,    35.9025,   123.26,    35.9025,     3.26,    35.9025,  -116.74, 7.10079E-9,   -57.11, 7.19019E-13,    18.43
Transformer.SHANTADURGA_OLD,     1.1384,   -25.74,     1.1384,  -145.74,     1.1384,    94.26,          0,     0.00, 2.84217E-14,   180.00,    29.8356,   123.96,    29.8356,     3.96,    29.8356,  -116.04, 5.89682E-9,   -56.38, 3.21555E-13,   -45.00
Transformer.SANATAN_1,     2.8985,   -26.52,     2.8985,  -146.52,     2.8985,    93.48,          0,     0.00, 4.01944E-14,   -45.00,    76.4914,   123.36,    76.4914,     3.36,    76.4914,  -116.64, 1.51876E-8,   -57.32, 1.01685E-12,   153.43
Transformer.SANATAN_2,  0.0142032,    -0.27,  0.0142032,  -120.27,  0.0142032,   119.73,          0,     0.00, 2.84217E-14,     0.00,          0,     0.00,          0,     0.00, 4.54747E-13,   -90.00, 1.4559E-12,   128.66, 1.13687E-12,   143.13
Transformer.RAMNATHI_DEVASTHAN,    1.43294,   -25.83,    1.43294,  -145.83,    1.43294,    94.17,          0,     0.00, 3.17764E-14,  -153.43,    37.6428,   123.93,    37.6428,     3.93,    37.6428,  -116.07, 7.44015E-9,   -56.45, 7.19019E-13,   -71.57
Transformer.RAMNATHI,  0.0142066,    -0.27,  0.0142066,  -120.27,  0.0142066,   119.73,          0,     0.00, 4.26326E-14,    90.00, 1.28622E-12,   135.00, 9.09495E-13,    90.00, 9.09495E-13,     0.00, 1.63961E-12,  -123.69, 1.01685E-12,   153.43
Transformer.RPRS_SCHOOL,   0.376318,   -25.21,   0.376318,  -145.21,   0.376318,    94.79,          0,     0.00, 2.84217E-14,   -90.00,    9.63445,   123.84,    9.63445,     3.84,    9.63445,  -116.16, 1.89779E-9,   -56.33, 1.22444E-12,   -21.80
Transformer.TOLULEM,  0.0142295,    -0.26,  0.0142295,  -120.26,  0.0142295,   119.74,          0,     0.00, 3.17764E-14,   153.43, 4.54747E-13,   180.00, 4.54747E-13,   180.00, 9.09495E-13,     0.00, 6.82121E-13,   -90.00, 6.82121E-13,   -90.00
Transformer.KHARWADA,  0.0142512,    -0.25,  0.0142512,  -120.25,  0.0142512,   119.75,          0,     0.00, 3.17764E-14,   153.43, 4.54747E-13,   180.00, 1.28622E-12,   -45.00, 9.09495E-13,   180.00, 1.13687E-12,    90.00, 5.08423E-13,   153.43
Transformer.SHANTADURGA_NEW,      5.335,   -27.10,      5.335,  -147.10,      5.335,    92.90,          0,     0.00, 7.65278E-14,    21.80,    141.114,   122.84,    141.114,     2.84,    141.114,  -117.16, 2.82042E-8,   -58.36, 7.95808E-13,   -90.00
Transformer.GALSHIRE,    3.87328,   -26.74,    3.87328,  -146.74,    3.87328,    93.26,          0,     0.00, 3.17764E-14,   116.57,     102.33,   123.17,     102.33,     3.17,     102.33,  -116.83, 2.03862E-8,   -57.70, 1.13687E-12,   126.87
Transformer.RAJENDRA_TALAK,   0.232416,   -25.15,   0.232416,  -145.15,   0.232416,    94.85,          0,     0.00, 5.85929E-14,   -75.96,    5.87926,   123.58,    5.87926,     3.58,    5.87926,  -116.42, 1.16177E-9,   -56.56, 1.54631E-12,    53.97
Transformer.RITESH_DEVELOPERS,   0.361276,   -25.28,   0.361276,  -145.28,   0.361276,    94.72,          0,     0.00, 4.26326E-14,   -90.00,    9.27587,   123.86,    9.27587,     3.86,    9.27587,  -116.14, 1.83151E-9,   -56.35, 3.41061E-13,    90.00
Transformer.VENKATESH_LEELA,  0.0141875,    -0.28,  0.0141875,  -120.28,  0.0141875,   119.72,          0,     0.00, 3.17764E-14,   -26.57, 9.37486E-13,  -104.04, 2.03369E-12,   116.57, 9.37486E-13,   -14.04, 2.27374E-13,   -90.00, 5.08423E-13,   116.57
Transformer.PERIGOL,    7.80859,   -27.61,    7.80859,  -147.61,    7.80859,    92.39,          0,     0.00, 2.00972E-14,   -45.00,    206.681,   122.35,    206.681,     2.35,    206.681,  -117.65, 4.16256E-8,   -59.33, 1.33067E-12,    70.02
Transformer.MANMOHAN_SINGH,    2.90014,   -26.46,    2.90014,  -146.46,    2.90014,    93.54,          0,     0.00, 2.84217E-14,     0.00,     76.535,   123.42,     76.535,     3.42,     76.535,  -116.58, 1.52041E-8,   -57.19, 1.01685E-12,   -63.43
Transformer.DHUMRE,    3.87516,   -26.74,    3.87516,  -146.74,    3.87516,    93.26,          0,     0.00, 4.26326E-14,   -90.00,     102.38,   123.17,     102.38,     3.17,     102.38,  -116.83, 2.04075E-8,   -57.71, 1.36424E-12,     0.00
Transformer.SHASHIKALA_PAI,  0.0141895,    -0.28,  0.0141895,  -120.28,  0.0141895,   119.72,          0,     0.00, 2.84217E-14,    90.00,          0,     0.00, 9.09495E-13,    90.00,          0,     0.00, 1.28622E-12,   -45.00, 9.09495E-13,     0.00
Transformer.KAPILESHWARI,    2.90056,   -26.50,    2.90056,  -146.50,    2.90056,    93.50,          0,     0.00, 2.84217E-14,     0.00,    76.5462,   123.38,    76.5462,     3.38,    76.5462,  -116.62, 1.52062E-8,   -57.27, 1.65531E-12,   164.05
Transformer.MATRUCHAYA,    2.41678,   -26.41,    2.41678,  -146.41,    2.41678,    93.59,          0,     0.00, 3.17764E-14,    63.43,    63.7226,   123.45,    63.7226,     3.45,    63.7226,  -116.55, 1.26471E-8,   -57.14, 7.19019E-13,   108.43
Transformer.VAMNESHWAR,    2.90157,   -26.53,    2.90157,  -146.53,    2.90157,    93.47,          0,     0.00, 3.17764E-14,   -26.57,     76.573,   123.35,     76.573,     3.35,     76.573,  -116.65, 1.52183E-8,   -57.33, 4.54747E-13,     0.00
Transformer.GOLDEN_PROPERTIES,  0.0141883,    -0.28,  0.0141883,  -120.28,  0.0141883,   119.72,          0,     0.00, 4.01944E-14,    45.00, 1.01685E-12,   116.57,          0,     0.00, 1.13687E-12,    36.87, 9.37486E-13,   165.96, 1.87497E-12,   104.04
Transformer.RITESH,  0.0141883,    -0.28,  0.0141883,  -120.28,  0.0141883,   119.72,          0,     0.00, 3.17764E-14,  -153.43, 2.27374E-13,     0.00, 1.28622E-12,  -135.00, 9.37486E-13,    14.04, 4.54747E-13,    90.00, 3.21555E-13,   -45.00
Transformer.T_SNEH_MANDIR,    2.65883,   -26.47,    2.65883,  -146.47,    2.65883,    93.53,          0,     0.00, 2.84217E-14,    90.00,    70.1387,   123.40,    70.1387,     3.40,    70.1387,  -116.60, 1.39295E-8,   -57.23, 2.27374E-13,   180.00
Transformer.T_RAIGUINIM,     2.8848,   -26.45,     2.8848,  -146.45,     2.8848,    93.55,          0,     0.00, 5.1238E-14,   146.31,    76.1265,   123.42,    76.1265,     3.42,    76.1265,  -116.58, 1.50272E-8,   -57.19, 1.13687E-12,   180.00
Transformer.T_BANDORAPANCHAYAT,    2.88542,   -26.48,    2.88542,  -146.48,    2.88542,    93.52,          0,     0.00, 4.01944E-14,  -135.00,    76.1431,   123.40,    76.1431,     3.40,    76.1431,  -116.60, 1.50338E-8,   -57.24, 8.19807E-13,  -146.31
Transformer.T_KASHIMATHGROUND,  0.0142666,    -0.24,  0.0142666,  -120.24,  0.0142666,   119.76,          0,     0.00, 2.84217E-14,   -90.00, 4.54747E-13,     0.00, 1.28622E-12,   135.00, 9.37486E-13,  -165.96, 2.27374E-13,   -90.00, 1.43804E-12,   161.57
Transformer.T_NAGESHITEMPLE,    2.64382,   -26.41,    2.64382,  -146.41,    2.64382,    93.59,          0,     0.00, 3.17764E-14,   116.57,    69.7388,   123.46,    69.7388,     3.46,    69.7388,  -116.54,  1.3756E-8,   -57.12, 7.19019E-13,   108.43
Transformer.T_DHONSHI,    3.36845,   -26.59,    3.36845,  -146.59,    3.36845,    93.41,          0,     0.00, 2.84217E-14,   -90.00,    88.9467,   123.31,    88.9467,     3.31,    88.9467,  -116.69, 1.75849E-8,   -57.42, 8.19807E-13,   -33.69
Transformer.T_AGRASHALA,    2.40201,   -26.33,    2.40201,  -146.33,    2.40201,    93.67,          0,     0.00, 4.49387E-14,   -18.43,    63.3292,   123.52,    63.3292,     3.52,    63.3292,  -116.48, 1.24801E-8,   -56.99, 1.13687E-12,   143.13
Transformer.T_HINDUJAN,    3.36789,   -26.59,    3.36789,  -146.59,    3.36789,    93.41,          0,     0.00,          0,     0.00,    88.9317,   123.31,    88.9317,     3.31,    88.9317,  -116.69, 1.75805E-8,   -57.42, 2.27374E-13,    90.00
Transformer.T_VAGDOR,  0.0142695,    -0.24,  0.0142695,  -120.24,  0.0142695,   119.76,          0,     0.00, 1.42109E-14,     0.00, 9.37486E-13,  -104.04, 9.09495E-13,    90.00, 9.37486E-13,    14.04, 1.63961E-12,  -123.69, 1.15938E-12,  -101.31
Transformer.T_MAHALAXMI,     3.8516,   -26.69,     3.8516,  -146.69,     3.8516,    93.31,          0,     0.00, 4.01944E-14,  -135.00,    101.753,   123.22,    101.753,     3.22,    101.753,  -116.78, 2.01372E-8,   -57.60, 1.77585E-12,    50.19
Transformer.T_PEARL,    2.40208,   -26.36,    2.40208,  -146.36,    2.40208,    93.64,          0,     0.00, 2.84217E-14,    90.00,     63.331,   123.50,     63.331,     3.50,     63.331,  -116.50, 1.24798E-8,   -57.05, 4.54747E-13,   180.00
Transformer.T_KUNAL,    2.64262,   -26.42,    2.64262,  -146.42,    2.64262,    93.58,          0,     0.00, 3.17764E-14,   -63.43,    69.7069,   123.45,    69.7069,     3.45,    69.7069,  -116.55, 1.37428E-8,   -57.14, 2.15706E-12,   108.43
...